!!>>>>>>>>>>>>>>>>>>>>>>>>>>>>>>>>>>>>>>>>>>>>>>>>>>>>>>>>>>>>>>>>>>>>>>
!! NEMO/OPA  Configuration namelist : used to overwrite defaults values defined in SHARED/namelist_ref
!!>>>>>>>>>>>>>>>>>>>>>>>>>>>>>>>>>>>>>>>>>>>>>>>>>>>>>>>>>>>>>>>>>>>>>>
!
!-----------------------------------------------------------------------
&namrun        !   parameters of the run
!-----------------------------------------------------------------------
   cn_exp      =  _AUTO_
   nn_date0    =  _AUTO_   !  date at nit_0000 (format yyyymmdd) used if ln_rstart=F or (ln_rstart=T and nn_rstctl=0 or 1)
   nn_leapy    =  _AUTO_   !  Leap year calendar (1) or not (0)
   ln_rstart   =  _AUTO_
   nn_rstctl   =  _AUTO_
   nn_it000    =  _AUTO_
   nn_itend    =  _AUTO_
   nn_stock    =  _AUTO_
   ln_mskland  = .true.
   ln_mskutil  = .false.
   ln_clobber  = .true.
   ln_cfmeta   = .true.
/
!
!!======================================================================
!!                      ***  Domain namelists  ***
!!======================================================================
!!   namcfg       parameters of the configuration
!!   namzgr       vertical coordinate
!!   namzgr_sco   s-coordinate or hybrid z-s-coordinate
!!   namdom       space and time domain (bathymetry, mesh, timestep)
!!   namtsd       data: temperature & salinity
!!======================================================================
!
!-----------------------------------------------------------------------
&namcfg     !   parameters of the configuration
!-----------------------------------------------------------------------
   cp_cfg      =  "orca"               !  name of the configuration
   cp_cfz      =  "no zoom"            !  name of the zoom of configuration
   jp_cfg      =     025               !  resolution of the configuration
   jpidta      =    1442               !  1st lateral dimension ( >= jpi )
   jpjdta      =    1207               !  2nd    "         "    ( >= jpj )
   jpkdta      =      75               !  number of levels      ( >= jpk )
   jpiglo      =    1442               !  1st dimension of global domain --> i =jpidta
   jpjglo      =    1207               !  2nd    -                  -    --> j  =jpjdta
   jpizoom     =       1               !  left bottom (i,j) indices of the zoom
   jpjzoom     =       1               !  in data domain indices
   jperio      =       4               !  lateral cond. type (between 0 and 6)
                                       !  = 0 closed                 ;   = 1 cyclic East-West
                                       !  = 2 equatorial symmetric   ;   = 3 North fold T-point pivot
                                       !  = 4 cyclic East-West AND North fold T-point pivot
                                       !  = 5 North fold F-point pivot
                                       !  = 6 cyclic East-West AND North fold F-point pivot
   ln_use_jattr = .false.              !  use (T) the file attribute: open_ocean_jstart, if present
                                       !  in netcdf input files, as the start j-row for reading
/
!-----------------------------------------------------------------------
&namzgr        !   vertical coordinate
!-----------------------------------------------------------------------
   ln_zco      = .false.   !  z-coordinate - full    steps   (T/F)      ("key_zco" may also be defined)
   ln_zps      = .true.    !  z-coordinate - partial steps   (T/F)
   ln_sco      = .false.   !  s- or hybrid z-s-coordinate    (T/F)
   ln_isfcav   = .false.   !  ice shelf cavity               (T/F)
/
!-----------------------------------------------------------------------
&namzgr_sco    !   s-coordinate or hybrid z-s-coordinate
!-----------------------------------------------------------------------
   ln_s_sh94   = .true.    !  Song & Haidvogel 1994 hybrid S-sigma   (T)|
   ln_s_sf12   = .false.   !  Siddorn & Furner 2012 hybrid S-z-sigma (T)| if both are false the NEMO tanh stretching is applied
   ln_sigcrit  = .false.   !  use sigma coordinates below critical depth (T) or Z coordinates (F) for Siddorn & Furner stretch
                           !  stretching coefficients for all functions
   rn_sbot_min =   10.0    !  minimum depth of s-bottom surface (>0) (m)
   rn_sbot_max = 7000.0    !  maximum depth of s-bottom surface (= ocean depth) (>0) (m)
   rn_hc       =  150.0    !  critical depth for transition to stretched coordinates
                        !!!!!!!  Envelop bathymetry
   rn_rmax     =    0.3    !  maximum cut-off r-value allowed (0<r_max<1)
                        !!!!!!!  SH94 stretching coefficients  (ln_s_sh94 = .true.)
   rn_theta    =    6.0    !  surface control parameter (0<=theta<=20)
   rn_bb       =    0.8    !  stretching with SH94 s-sigma
                        !!!!!!!  SF12 stretching coefficient  (ln_s_sf12 = .true.)
   rn_alpha    =    4.4    !  stretching with SF12 s-sigma
   rn_efold    =    0.0    !  efold length scale for transition to stretched coord
   rn_zs       =    1.0    !  depth of surface grid box
                           !  bottom cell depth (Zb) is a linear function of water depth Zb = H*a + b
   rn_zb_a     =    0.024  !  bathymetry scaling factor for calculating Zb
   rn_zb_b     =   -0.2    !  offset for calculating Zb
                        !!!!!!!! Other stretching (not SH94 or SF12) [also uses rn_theta above]
   rn_thetb    =    1.0    !  bottom control parameter  (0<=thetb<= 1)
/
!-----------------------------------------------------------------------
&namdom        !   space and time domain (bathymetry, mesh, timestep)
!-----------------------------------------------------------------------
   nn_bathy    =    1      !  compute (=0) or read (=1) the bathymetry file
   rn_bathy    =    0.     !  value of the bathymetry. if (=0) bottom flat at jpkm1
   nn_closea   =    0      !  remove (=0) or keep (=1) closed seas and lakes (ORCA)
   nn_msh      =    0 ! 6      !  create (=1) a mesh file or not (=0)
   rn_hmin     =   10.     !  min depth of the ocean (>0) or min number of ocean level (<0)
   rn_e3zps_min=   25.     !  partial step thickness is set larger than the minimum of
   rn_e3zps_rat=    0.1    !  rn_e3zps_min and rn_e3zps_rat*e3t, with 0<rn_e3zps_rat<1
                           !
   rn_rdt      = 900.      !  time step for the dynamics (and tracer if nn_acc=0)
   rn_atfp     =    0.1    !  asselin time filter parameter
   nn_acc      =    0      !  acceleration of convergence : =1      used, rdt < rdttra(k)
                                 !                          =0, not used, rdt = rdttra
   rn_rdtmin   = 28800.          !  minimum time step on tracers (used if nn_acc=1)
   rn_rdtmax   = 28800.          !  maximum time step on tracers (used if nn_acc=1)
   rn_rdth     =  800.           !  depth variation of tracer time step  (used if nn_acc=1)
   ln_crs      = .false.      !  Logical switch for coarsening module
   jphgr_msh   =       0               !  type of horizontal mesh
                                       !  = 0 curvilinear coordinate on the sphere read in coordinate.nc
                                       !  = 1 geographical mesh on the sphere with regular grid-spacing
                                       !  = 2 f-plane with regular grid-spacing
                                       !  = 3 beta-plane with regular grid-spacing
                                       !  = 4 Mercator grid with T/U point at the equator
   ppglam0     =  999999.0             !  longitude of first raw and column T-point (jphgr_msh = 1)
   ppgphi0     =  999999.0             ! latitude  of first raw and column T-point (jphgr_msh = 1)
   ppe1_deg    =  999999.0             !  zonal      grid-spacing (degrees)
   ppe2_deg    =  999999.0             !  meridional grid-spacing (degrees)
   ppe1_m      =  999999.0             !  zonal      grid-spacing (degrees)
   ppe2_m      =  999999.0             !  meridional grid-spacing (degrees)
   ppsur       =   -3958.951371276829  !  ORCA r4, r2 and r05 coefficients
   ppa0        =     103.9530096000000 ! (default coefficients)
   ppa1        =       2.415951269000000   !
   ppkth       =      15.35101370000000    !
   ppacr       =       7.0             !
   ppdzmin     =  999999.0             !  Minimum vertical spacing
   pphmax      =  999999.0             !  Maximum depth
   ldbletanh   =    .TRUE.             !  Use/do not use double tanf function for vertical coordinates
   ppa2        =      100.760928500000 !  Double tanh function parameters
   ppkth2      =       48.029893720000 !
   ppacr2      =       13.000000000000 !
/
!-----------------------------------------------------------------------
&namsplit      !   time splitting parameters                            ("key_dynspg_ts")
!-----------------------------------------------------------------------
   ln_bt_fw      =    .TRUE.           !  Forward integration of barotropic equations
   ln_bt_av      =    .TRUE.           !  Time filtering of barotropic variables
   ln_bt_nn_auto =    .TRUE.           !  Set nn_baro automatically to be just below
                                       !  a user defined maximum courant number (rn_bt_cmax)
   nn_baro       =    80               !  Number of iterations of barotropic mode
                                       !  during rn_rdt seconds. Only used if ln_bt_nn_auto=F
   rn_bt_cmax    =    0.7              !  Maximum courant number allowed if ln_bt_nn_auto=T 
   nn_bt_flt     =    1                !  Time filter choice
                                       !  = 0 None
                                       !  = 1 Boxcar over   nn_baro barotropic steps
                                       !  = 2 Boxcar over 2*nn_baro     "        "
/
!-----------------------------------------------------------------------
&namcrs        !   Grid coarsening for dynamics output and/or
               !   passive tracer coarsened online simulations
!-----------------------------------------------------------------------
   nn_factx    = 3         !  Reduction factor of x-direction
   nn_facty    = 3         !  Reduction factor of y-direction
   nn_binref   = 0         !  Bin centering preference: NORTH or EQUAT
                           !  0, coarse grid is binned with preferential treatment of the north fold
                           !  1, coarse grid is binned with centering at the equator
                           !    Symmetry with nn_facty being odd-numbered. Asymmetry with even-numbered nn_facty.
   nn_msh_crs  = 1         !  create (=1) a mesh file or not (=0)
   nn_crs_kz   = 0         ! 0, MEAN of volume boxes
                           ! 1, MAX of boxes
                           ! 2, MIN of boxes
   ln_crs_wn   = .true.    ! wn coarsened (T) or computed using horizontal divergence ( F )
/
!-----------------------------------------------------------------------
&namc1d        !   1D configuration options                             ("key_c1d")
!-----------------------------------------------------------------------
   rn_lat1d    =      50   !  Column latitude (default at PAPA station)
   rn_lon1d    =    -145   !  Column longitude (default at PAPA station)
   ln_c1d_locpt=  .true.   ! Localization of 1D config in a grid (T) or independant point (F)
/
!-----------------------------------------------------------------------
&namtsd    !   data : Temperature  & Salinity
!-----------------------------------------------------------------------
!-----------------------------------------------------------------------
!          !  file name                            ! frequency (hours) ! variable  ! time interp. !  clim  ! 'yearly'/ ! weights  ! rotation ! land/sea mask !
!          !                                       !  (if <0  months)  !   name    !   (logical)  !  (T/F) ! 'monthly' ! filename ! pairing  ! filename      !
   sn_tem = 'conservative_temperature_WOA13_decav_Reg1L75_clim' , -1,  'votemper',  .false.       , .true., 'yearly'   , 'weights_3D_WOA13d1_2_eorca025_bilinear.nc', ' ' ,''  !
   sn_sal = 'absolute_salinity_WOA13_decav_Reg1L75_clim'        , -1,  'vosaline',  .false.       , .true., 'yearly'   , 'weights_3D_WOA13d1_2_eorca025_bilinear.nc', ' ' ,''  !
   !
   cn_dir        = './'     !  root directory for the location of the runoff files
   ln_tsd_init   = .true.   !  Initialisation of ocean T & S with T &S input data (T) or not (F)
   ln_tsd_tradmp = .false.   !  damping of ocean T & S toward T &S input data (T) or not (F)
/
!!======================================================================
!!            ***  Surface Boundary Condition namelists  ***
!!======================================================================
!!   namsbc          surface boundary condition
!!   namsbc_ana      analytical         formulation
!!   namsbc_flx      flux               formulation
!!   namsbc_clio     CLIO bulk formulae formulation
!!   namsbc_core     CORE bulk formulae formulation
!!   namsbc_mfs      MFS  bulk formulae formulation
!!   namsbc_cpl      CouPLed            formulation                     ("key_oasis3")
!!   namsbc_sas      StAndalone Surface module
!!   namtra_qsr      penetrative solar radiation
!!   namsbc_rnf      river runoffs
!!   namsbc_isf      ice shelf melting/freezing
!!   namsbc_apr      Atmospheric Pressure
!!   namsbc_ssr      sea surface restoring term (for T and/or S)
!!   namsbc_alb      albedo parameters
!!======================================================================
!
!-----------------------------------------------------------------------
&namsbc        !   Surface Boundary Condition (surface module)
!-----------------------------------------------------------------------
   nn_fsbc     = 2         !  frequency of surface boundary condition computation
                           !     (also = the frequency of sea-ice model call)
   nn_ice_embd = 1         !  =0 levitating ice (no mass exchange, concentration/dilution effect)
                           !  =1 levitating ice with mass and salt exchange but no presure effect
                           !  =2 embedded sea-ice (full salt and mass exchanges and pressure)
   ln_dm2dc    = .true.    !  daily mean to diurnal cycle on short wave
   ln_rnf      = .true.    !  runoffs                                   (T   => fill namsbc_rnf)
   nn_isf      = 0         !  ice shelf melting/freezing                (/=0 => fill namsbc_isf)
                           !  0 =no isf                  1 = presence of ISF
                           !  2 = bg03 parametrisation   3 = rnf file for isf
                           !  4 = ISF fwf specified
                           !  option 1 and 4 need ln_isfcav = .true. (domzgr)
   ln_ssr      = .true.    !  Sea Surface Restoring on T and/or S       (T => fill namsbc_ssr)
   nn_fwb      = 2         !  FreshWater Budget: =0 unchecked
                           !     =1 global mean of e-p-r set to zero at each time step
/
!-----------------------------------------------------------------------
&namsbc_ana    !   analytical surface boundary condition
!-----------------------------------------------------------------------
/
!-----------------------------------------------------------------------
&namsbc_flx    !   surface boundary condition : flux formulation
!-----------------------------------------------------------------------
/
!-----------------------------------------------------------------------
&namsbc_clio   !   namsbc_clio  CLIO bulk formulae
!-----------------------------------------------------------------------
/
!-----------------------------------------------------------------------
&namsbc_core   !   namsbc_core  CORE bulk formulae
!-----------------------------------------------------------------------
!              !   file name          ! frequency (hours) ! variable   ! time interpol. !  clim   ! 'yearly'/ ! weights              ! rotation !
!              !                      !  (if <0  months)  !   name     !    (logical)   !  (T/F)  ! 'monthly' ! filename             ! pairing  !
   sn_wndi =    'drowned.compress_u10_DFS5.2'  ,     3     ,  'u10'     ,    .true.      , .false. ,  'yearly'  ,  'weights_bicubic' ,  'U1'
   sn_wndj =    'drowned.compress_v10_DFS5.2'  ,     3     ,  'v10'     ,    .true.      , .false. ,  'yearly'  ,  'weights_bicubic' ,  'V1'
   sn_humi =    'drowned.compress_q2_DFS5.2'    ,    3     ,  'q2'      ,    .true.      , .false. ,  'yearly'  ,  'weights_bilinear' ,  ''
   sn_qsr  =    'drowned.compress_radsw_DFS5.2' ,    24    ,  'radsw'   ,    .false.     , .false. ,  'yearly'  ,  'weights_bilinear' ,  ''
   sn_qlw  =    'drowned.compress_radlw_DFS5.2' ,    24    ,  'radlw'   ,    .false.     , .false. ,  'yearly'  ,  'weights_bilinear' ,  ''
   sn_tair =    'drowned.compress_t2_DFS5.2'    ,    3     ,  't2'      ,    .true.      , .false. ,  'yearly'  ,  'weights_bilinear' ,  ''
   sn_prec =    'drowned.compress_precip_DFS5.2' ,   24    ,  'precip'  ,    .true.      , .false. ,  'yearly'  ,  'weights_bilinear' ,  ''
   sn_snow =    'drowned.compress_snow_DFS5.2'  ,    24    ,  'snow'    ,    .true.      , .false. ,  'yearly'  ,  'weights_bilinear' ,  ''
   !
   cn_dir      = './'      !  root directory for the location of the bulk files
   rn_zqt      = 2.        !  Air temperature and humidity reference height (m)
   rn_zu       = 10.        !  Wind vector reference height (m)                         
/
!-----------------------------------------------------------------------
&namsbc_mfs   !   namsbc_mfs  MFS bulk formulae
!-----------------------------------------------------------------------
/
!-----------------------------------------------------------------------
&namsbc_cpl    !   coupled ocean/atmosphere model                       ("key_oasis3")
!-----------------------------------------------------------------------
/
!-----------------------------------------------------------------------
&namsbc_sas    !   analytical surface boundary condition
!-----------------------------------------------------------------------
!              !  file name  ! frequency (hours) ! variable  ! time interp. !  clim  ! 'yearly'/ ! weights  ! rotation ! land/sea mask !
/
!-----------------------------------------------------------------------
&namtra_qsr    !   penetrative solar radiation
!-----------------------------------------------------------------------
!              !  file name  ! frequency (hours) ! variable  ! time interp. !  clim  ! 'yearly'/ ! weights  ! rotation ! land/sea mask !
!              !             !  (if <0  months)  !   name    !   (logical)  !  (T/F) ! 'monthly' ! filename ! pairing  ! filename      !
   sn_chl      ='merged_ESACCI_BIOMER4V1R1_CHL_REG05', -1 , 'CHLA' , .true. , .true. , 'yearly'  , 'weights_reg05_2_eorca025_bilinear.nc' , '', ''

   cn_dir      = './'      !  root directory for the location of the runoff files
   ln_traqsr   = .true.    !  Light penetration (T) or not (F)
   ln_qsr_rgb  = .true.    !  RGB (Red-Green-Blue) light penetration
   ln_qsr_2bd  = .false.   !  2 bands              light penetration
   ln_qsr_bio  = .false.   !  bio-model light penetration
   nn_chldta   =      1    !  RGB : 2D Chl data (=1), 3D Chl data (=2) or cst value (=0)
   rn_abs      =   0.58    !  RGB & 2 bands: fraction of light (rn_si1)
   rn_si0      =   0.35    !  RGB & 2 bands: shortess depth of extinction
   rn_si1      =   23.0    !  2 bands: longest depth of extinction
   ln_qsr_ice  = .true.    !  light penetration for ice-model LIM3
/
!-----------------------------------------------------------------------
&namsbc_rnf    !   runoffs namelist surface boundary condition
!-----------------------------------------------------------------------
!              !  file name           ! frequency (hours) ! variable  ! time interp. !  clim  ! 'yearly'/ ! weights  ! rotation ! land/sea mask !
!              !                      !  (if <0  months)  !   name    !   (logical)  !  (T/F) ! 'monthly' ! filename ! pairing  ! filename      !
   sn_rnf      = 'eORCA_R025_runoff_v1.0'            ,        -1         , 'sornficb',   .true.     , .true. , 'yearly'  , ''       , ''  , ''
   sn_cnf      = 'eORCA_R025_runoff_v1.0'            ,         0         , 'socoefr' ,   .false.    , .true. , 'yearly'  , ''       , ''  , ''
   sn_s_rnf    = 'eORCA_R025_runoff_v1.0'            ,        24         , 'rosaline',   .true.     , .true. , 'yearly'  , ''       , ''  , ''
   sn_t_rnf    = 'eORCA_R025_runoff_v1.0'            ,        24         , 'rotemper',   .true.     , .true. , 'yearly'  , ''       , ''  , ''
   sn_dep_rnf  = 'eORCA_R025_runoff_v1.0'            ,         0         , 'rodepth' ,   .false.    , .true. , 'yearly'  , ''       , ''  , ''

   cn_dir       = './'      !  root directory for the location of the runoff files
   ln_rnf_mouth = .false. !!true. !rbb.false.   !  specific treatment at rivers mouths
   rn_hrnf      =   10.     !  depth over which enhanced vertical mixing is used
   rn_avt_rnf   =   2.e-3   !  value of the additional vertical mixing coef. [m2/s]
   rn_rfact     =   1.e0    !  multiplicative factor for runoff
   ln_rnf_depth = .false.   !  read in depth information for runoff
   ln_rnf_tem   = .false.   !  read in temperature information for runoff
   ln_rnf_sal   = .false.   !  read in salinity information for runoff
   ln_rnf_depth_ini = .true.  ! compute depth at initialisation from runoff file
   rn_rnf_max   = 0.027394  !  max value of the runoff climatologie over global domain ( ln_rnf_depth_ini = .true )
   rn_dep_max   = 150.      !  depth over which runoffs is spread ( ln_rnf_depth_ini = .true )
   nn_rnf_depth_file = 0    !  create (=1) a runoff depth file or not (=0)
/
!-----------------------------------------------------------------------
&namsbc_isf    !  Top boundary layer (ISF)
!-----------------------------------------------------------------------
!              ! file name ! frequency (hours) ! variable ! time interpol. !  clim   ! 'yearly'/ ! weights  ! rotation !
!              !           !  (if <0  months)  !   name   !    (logical)   !  (T/F)  ! 'monthly' ! filename ! pairing  !
   sn_rnfisf     = 'eORCA_R025_runoff_v1.0' ,   -12      ,'sornfisf',    .false.      , .true.  , 'yearly'  ,  ''      ,   ''
   sn_depmax_isf = 'eORCA_R025_runoff_v1.0' ,   -12      ,'sodepmax_isf' ,   .false.  , .true.  , 'yearly'  ,  ''      ,   ''
   sn_depmin_isf = 'eORCA_R025_runoff_v1.0' ,   -12      ,'sodepmin_isf' ,   .false.  , .true.  , 'yearly'  ,  ''      ,   ''

/
!-----------------------------------------------------------------------
&namsbc_apr    !   Atmospheric pressure used as ocean forcing or in bulk
!-----------------------------------------------------------------------
!              !  file name  ! frequency (hours) ! variable  ! time interp. !  clim  ! 'yearly'/ ! weights  ! rotation ! land/sea mask !
!              !             !  (if <0  months)  !   name    !   (logical)  !  (T/F) ! 'monthly' ! filename ! pairing  ! filename      !
/
!-----------------------------------------------------------------------
&namsbc_ssr    !   surface boundary condition : sea surface restoring
!-----------------------------------------------------------------------
!              !  file name  ! frequency (hours) ! variable  ! time interp. !  clim  ! 'yearly'/ ! weights  ! rotation ! land/sea mask !
!              !             !  (if <0  months)  !   name    !   (logical)  !  (T/F) ! 'monthly' ! filename ! pairing  ! filename      !
   sn_sst      = 'sst_data'  ,                        24  ,  'sst'     ,    .false.   , .false., 'yearly'  , ''       , ''       , ''
   sn_sss      = 'sss_absolute_salinity_WOA13_decav_Reg1L75_clim'  , -1  , 'sosaline'     ,    .true.    , .true. , 'yearly'  , 'weights_WOA13d1_2_eorca025_bilinear.nc'       , ''       , ''

   cn_dir      = './'      !  root directory for the location of the runoff files
   nn_sstr     =     0     !  add a retroaction term in the surface heat       flux (=1) or not (=0)
   nn_sssr     =     2     !  add a damping     term in the surface freshwater flux (=2)
                           !  or to SSS only (=1) or no damping term (=0)
   rn_dqdt     =   -40.    !  magnitude of the retroaction on temperature   [W/m2/K]
   rn_deds     =  -166.67  !  magnitude of the damping on salinity   [mm/day]
   ln_sssr_bnd =   .true.  !  flag to bound erp term (associated with nn_sssr=2)
   rn_sssr_bnd =   4.e0    !  ABS(Max/Min) value of the damping erp term [mm/day]
   !
   nn_icedmp   =   0       !  Cntrl of surface restoration under ice nn_icedmp 
                           !  ( 0   =  no restoration under ice )
                           !  ( 1   =  restoration everywhere  )
                           !  ( > 1 =  reinforced damping (x nn_icedmp) under ice 
   ln_sssd_bnd =   .false. !  flag to bound  S-S* 
   rn_sssd_bnd =   0.01    !  ABS(Max./Min.) S-S* threshold  [psu]
/
!-----------------------------------------------------------------------
&namsbc_alb    !   albedo parameters
!-----------------------------------------------------------------------
   nn_ice_alb   =    1   !  parameterization of ice/snow albedo
                         !     0: Shine & Henderson-Sellers (JGR 1985), giving clear-sky albedo
                         !     1: "home made" based on Brandt et al. (JClim 2005) and Grenfell & Perovich (JGR 2004),
                         !        giving cloud-sky albedo
   rn_alb_sdry  =  0.85  !  dry snow albedo         : 0.80 (nn_ice_alb = 0); 0.85 (nn_ice_alb = 1); obs 0.85-0.87 (cloud-sky)
   rn_alb_smlt  =  0.75  !  melting snow albedo     : 0.65 ( '' )          ; 0.75 ( '' )          ; obs 0.72-0.82 ( '' )
   rn_alb_idry  =  0.60  !  dry ice albedo          : 0.72 ( '' )          ; 0.60 ( '' )          ; obs 0.54-0.65 ( '' )
   rn_alb_imlt  =  0.50  !  bare puddled ice albedo : 0.53 ( '' )          ; 0.50 ( '' )          ; obs 0.49-0.58 ( '' )
/
!-----------------------------------------------------------------------
&namberg       !   iceberg parameters
!-----------------------------------------------------------------------
/

!!======================================================================
!!               ***  Lateral boundary condition  ***
!!======================================================================
!!   namlbc        lateral momentum boundary condition
!!   namcla        cross land advection
!!   namobc        open boundaries parameters                           ("key_obc")
!!   namagrif      agrif nested grid ( read by child model only )       ("key_agrif")
!!   nambdy        Unstructured open boundaries                         ("key_bdy")
!!   namtide       Tidal forcing at open boundaries                     ("key_bdy_tides")
!!======================================================================
!
!-----------------------------------------------------------------------
&namlbc        !   lateral momentum boundary condition
!-----------------------------------------------------------------------
   rn_shlat    =  0.0  !  shlat = 0  !  0 < shlat < 2  !  shlat = 2  !  2 < shlat
                       !  free slip  !   partial slip  !   no slip   ! strong slip
   ln_vorlat   = .false.   !  consistency of vorticity boundary condition with analytical eqs.
   ln_shlat2d  = .true.    !  use 2D file for shlat
!              !  file name    ! frequency (hours) ! variable  ! time interp. !  clim  ! 'yearly'/ ! weights  ! rotation !
!              !               !  (if <0  months)  !   name    !   (logical)  !  (T/F) ! 'monthly' ! filename ! pairing  !
   sn_shlat2d  =  'shlat2d.nc' ,  -12             , 'shlat2d' ,  .false.    , .true.  ,  'yearly' , ''       , ''

/
!-----------------------------------------------------------------------
&namcla        !   cross land advection
!-----------------------------------------------------------------------
   nn_cla      =    0      !  advection between 2 ocean pts separates by land
/
!-----------------------------------------------------------------------
&namagrif      !  AGRIF zoom                                            ("key_agrif")
!-----------------------------------------------------------------------
/
!-----------------------------------------------------------------------
&nam_tide      !   tide parameters (#ifdef key_tide)
!-----------------------------------------------------------------------
/
!-----------------------------------------------------------------------
&nambdy        !  unstructured open boundaries                          ("key_bdy")
!-----------------------------------------------------------------------
 /
!-----------------------------------------------------------------------
&nambdy_dta      !  open boundaries - external data           ("key_bdy")
!-----------------------------------------------------------------------
/
!-----------------------------------------------------------------------
&nambdy_tide     ! tidal forcing at open boundaries
!-----------------------------------------------------------------------
/
!!======================================================================
!!                 ***  Bottom boundary condition  ***
!!======================================================================
!!   nambfr        bottom friction
!!   nambbc        bottom temperature boundary condition
!!   nambbl        bottom boundary layer scheme                         ("key_trabbl")
!!======================================================================
!
!-----------------------------------------------------------------------
&nambfr        !   bottom friction
!-----------------------------------------------------------------------
   nn_bfr      =    2      !  type of bottom friction :   = 0 : free slip,  = 1 : linear friction
                           !                              = 2 : nonlinear friction
   rn_bfri1    =    4.e-4  !  bottom drag coefficient (linear case)