!!>>>>>>>>>>>>>>>>>>>>>>>>>>>>>>>>>>>>>>>>>>>>>>>>>>>>>>>>>>>>>>>>>>>>>>
!! NEMO/LIM-3 : Ice configuration namelist. Overwrites SHARED/namelist_ice_lim3_ref
!>>>>>>>>>>>>>>>>>>>>>>>>>>>>>>>>>>>>>>>>>>>>>>>>>>>>>>>>>>>>>>>>>>>>>>>

!-----------------------------------------------------------------------
&namicerun     !   Share parameters for dynamics/advection/thermo
!-----------------------------------------------------------------------
   cn_icerst_in  = "restart_ice_in"   !  suffix of ice restart name (input)
/
!-----------------------------------------------------------------------
&namiceini     !   ice initialisation
!-----------------------------------------------------------------------
/
!-----------------------------------------------------------------------
&namicedyn     !   ice dynamic
!-----------------------------------------------------------------------
/
!------------------------------------------------------------------------------
&namicehdf     !   Ice horizontal diffusion
!------------------------------------------------------------------------------
   nn_ahi0        =  2          !  horizontal diffusivity computation
/
!-----------------------------------------------------------------------
&namicethd     !   ice thermodynamic
!-----------------------------------------------------------------------
/
!-----------------------------------------------------------------------
&namicesal     !   ice salinity
!-----------------------------------------------------------------------
/
!-----------------------------------------------------------------------
&namiceitdme   !   parameters for mechanical redistribution of ice
!-----------------------------------------------------------------------
/
!-----------------------------------------------------------------------
&namicedia     !   ice diagnostics
!-----------------------------------------------------------------------
/
!------------------------------------------------------------------------------
&namiceitd     !   Ice discretization
!------------------------------------------------------------------------------
   rn_himax_bot = 99.             !  max ice thickness in the last category jpl
/
